Version 4
SHEET 1 1108 680
WIRE 48 48 48 32
WIRE 288 64 288 32
WIRE 320 64 288 64
WIRE 288 144 288 64
WIRE 288 144 224 144
WIRE 320 144 320 128
WIRE 960 144 592 144
WIRE 976 144 960 144
WIRE 160 160 144 160
WIRE 320 176 224 176
WIRE 48 192 48 128
WIRE 160 192 48 192
WIRE 432 208 224 208
WIRE 592 208 592 144
WIRE 592 208 512 208
WIRE 960 224 960 144
WIRE 848 240 848 224
WIRE 48 256 48 192
WIRE 320 272 320 176
WIRE 320 272 272 272
WIRE 320 288 320 272
WIRE 592 320 592 288
WIRE 848 320 592 320
WIRE 960 320 960 288
WIRE 848 352 848 320
WIRE 320 368 320 352
WIRE 592 368 592 320
FLAG 48 336 0
FLAG 960 320 0
FLAG 592 448 0
FLAG -288 336 0
FLAG -288 256 PWM
IOPIN -288 256 Out
FLAG -288 176 0
FLAG -208 176 0
FLAG -128 96 0
FLAG -288 96 3.3V
IOPIN -288 96 Out
FLAG -208 96 12V
IOPIN -208 96 Out
FLAG -128 176 -12V
IOPIN -128 176 Out
FLAG 144 160 PWM
IOPIN 144 160 In
FLAG 48 32 3.3V
IOPIN 48 32 In
FLAG 848 224 3.3V
IOPIN 848 224 In
FLAG 320 368 0
FLAG 320 144 0
FLAG 272 272 -12V
IOPIN 272 272 In
FLAG 288 32 12V
IOPIN 288 32 In
FLAG 976 144 PilotSignal
IOPIN 976 144 Out
FLAG 848 352 PWM_ADC
IOPIN 848 352 Out
SYMBOL res 32 32 R0
SYMATTR InstName R1
SYMATTR Value 200k
SYMATTR SpiceLine tol=1
SYMBOL res 32 240 R0
SYMATTR InstName R2
SYMATTR Value 200k
SYMATTR SpiceLine tol=1
SYMBOL res 576 192 R0
SYMATTR InstName R3
SYMATTR Value 200k
SYMATTR SpiceLine tol=1
SYMBOL res 576 352 R0
SYMATTR InstName R4
SYMATTR Value 66.5k
SYMATTR SpiceLine tol=1
SYMBOL res 832 224 R0
SYMATTR InstName R5
SYMATTR Value 56k
SYMATTR SpiceLine tol=1
SYMBOL cap 304 288 R0
SYMATTR InstName C1
SYMATTR Value 0.1µ
SYMATTR SpiceLine V=25
SYMBOL cap 304 64 R0
SYMATTR InstName C2
SYMATTR Value 0.1µ
SYMATTR SpiceLine V=25
SYMBOL res 528 192 R90
WINDOW 0 0 56 VBottom 2
WINDOW 3 32 56 VTop 2
SYMATTR InstName R6
SYMATTR Value 1k
SYMBOL voltage -288 80 R0
WINDOW 0 24 96 Left 2
WINDOW 3 24 16 Left 2
WINDOW 123 0 0 Left 0
WINDOW 39 0 0 Left 0
SYMATTR InstName V1
SYMATTR Value 3.3
SYMBOL voltage -288 240 R0
WINDOW 0 24 96 Left 2
WINDOW 3 24 16 Left 2
WINDOW 123 0 0 Left 0
WINDOW 39 0 0 Left 0
SYMATTR InstName V4
SYMATTR Value PULSE(0 3.3 0 1p 1p 500u 1m)
SYMBOL voltage -208 80 R0
WINDOW 0 24 96 Left 2
WINDOW 3 24 16 Left 2
WINDOW 123 0 0 Left 0
WINDOW 39 0 0 Left 0
SYMATTR InstName V2
SYMATTR Value 12
SYMBOL voltage -128 80 R0
WINDOW 0 24 96 Left 2
WINDOW 3 24 16 Left 2
WINDOW 123 0 0 Left 0
WINDOW 39 0 0 Left 0
SYMATTR InstName V3
SYMATTR Value 12
SYMBOL LM324 192 176 R0
SYMATTR InstName U3
SYMBOL PGB1010603 960 256 R270
SYMATTR InstName U4
TEXT -296 384 Left 2 !.tran 5m
