Version 4
SHEET 1 1160 1228
WIRE 48 48 48 32
WIRE 288 64 288 32
WIRE 320 64 288 64
WIRE 288 144 288 64
WIRE 288 144 192 144
WIRE 320 144 320 128
WIRE 960 144 592 144
WIRE 976 144 960 144
WIRE 160 160 144 160
WIRE 384 176 224 176
WIRE 48 192 48 128
WIRE 160 192 48 192
WIRE 384 208 384 176
WIRE 432 208 384 208
WIRE 592 208 592 144
WIRE 592 208 512 208
WIRE 960 224 960 144
WIRE 192 240 192 208
WIRE 320 240 192 240
WIRE 848 240 848 224
WIRE 48 256 48 192
WIRE 320 272 320 240
WIRE 320 272 272 272
WIRE 320 288 320 272
WIRE 592 320 592 288
WIRE 848 320 592 320
WIRE 960 320 960 288
WIRE 848 352 848 320
WIRE 320 368 320 352
WIRE 592 368 592 320
FLAG 48 336 0
FLAG 960 320 0
FLAG 592 448 0
FLAG -288 336 0
FLAG -288 256 PWM
IOPIN -288 256 Out
FLAG -288 176 0
FLAG -208 176 0
FLAG -128 96 0
FLAG -288 96 3.3V
IOPIN -288 96 Out
FLAG -208 96 12V
IOPIN -208 96 Out
FLAG -128 176 -12V
IOPIN -128 176 Out
FLAG 144 160 PWM
IOPIN 144 160 In
FLAG 48 32 3.3V
IOPIN 48 32 In
FLAG 848 224 3.3V
IOPIN 848 224 In
FLAG 320 368 0
FLAG 320 144 0
FLAG 272 272 -12V
IOPIN 272 272 In
FLAG 288 32 12V
IOPIN 288 32 In
FLAG 976 144 PilotSignal
IOPIN 976 144 Out
FLAG 848 352 PWM_ADC
IOPIN 848 352 Out
SYMBOL res 32 32 R0
SYMATTR InstName R1
SYMATTR Value 200k
SYMATTR SpiceLine tol=1
SYMBOL res 32 240 R0
SYMATTR InstName R2
SYMATTR Value 200k
SYMATTR SpiceLine tol=1
SYMBOL res 576 192 R0
SYMATTR InstName R3
SYMATTR Value 200k
SYMATTR SpiceLine tol=1
SYMBOL res 576 352 R0
SYMATTR InstName R4
SYMATTR Value 66.5k
SYMATTR SpiceLine tol=1
SYMBOL res 832 224 R0
SYMATTR InstName R5
SYMATTR Value 56k
SYMATTR SpiceLine tol=1
SYMBOL cap 304 288 R0
SYMATTR InstName C1
SYMATTR Value 0.1µ
SYMATTR SpiceLine V=25
SYMBOL cap 304 64 R0
SYMATTR InstName C2
SYMATTR Value 0.1µ
SYMATTR SpiceLine V=25
SYMBOL res 528 192 R90
WINDOW 0 0 56 VBottom 2
WINDOW 3 32 56 VTop 2
SYMATTR InstName R6
SYMATTR Value 1k
SYMBOL voltage -288 80 R0
WINDOW 0 24 96 Left 2
WINDOW 3 24 16 Left 2
WINDOW 123 0 0 Left 0
WINDOW 39 0 0 Left 0
SYMATTR InstName V1
SYMATTR Value 3.3
SYMBOL voltage -288 240 R0
WINDOW 0 24 96 Left 2
WINDOW 3 24 16 Left 2
WINDOW 123 0 0 Left 0
WINDOW 39 0 0 Left 0
SYMATTR InstName V4
SYMATTR Value PULSE(0 3.3 0 1p 1p 500u 1m)
SYMBOL voltage -208 80 R0
WINDOW 0 24 96 Left 2
WINDOW 3 24 16 Left 2
WINDOW 123 0 0 Left 0
WINDOW 39 0 0 Left 0
SYMATTR InstName V2
SYMATTR Value 12
SYMBOL voltage -128 80 R0
WINDOW 0 24 96 Left 2
WINDOW 3 24 16 Left 2
WINDOW 123 0 0 Left 0
WINDOW 39 0 0 Left 0
SYMATTR InstName V3
SYMATTR Value 12
SYMBOL OpAmps\\opamp2 192 112 R0
SYMATTR InstName U1
SYMATTR Value LM324
SYMBOL Misc\\DIAC 928 224 R0
SYMATTR InstName U2
SYMATTR Value PGB1010603
TEXT -296 384 Left 2 !.tran 5m
TEXT -1176 -440 Left 2 !.SUBCKT PGB1010603  1   2\n*       TERMINALS:  T1  T2\n*T. Chenoski  05/31/2004\nL1 1 3 0.001u\nC1 3 2 0.050p ic=0V\nD1 4 3 DZ\nD2 3 5 DZ\nS1 4 2 1 2 ESDmod OFF\nS2 2 5 2 1 ESDmod OFF\n.MODEL ESDmod SW(RON=1 ROFF=2G VT=265 VH=235)\n.MODEL DZ     D (IS=321F RS=0.1 N=1.5 IBV=10N BV=150 CJO=0.001p TT=1p)\n.ENDS
TEXT -1272 8 Left 2 !* LM324 OPERATIONAL AMPLIFIER "MACROMODEL" SUBCIRCUIT\n* CREATED USING PARTS RELEASE 4.01 ON 09/08/89 AT 10:54\n* (REV N/A)      SUPPLY VOLTAGE: 5V\n* CONNECTIONS:   NON-INVERTING INPUT\n*                | INVERTING INPUT\n*                | | POSITIVE POWER SUPPLY\n*                | | | NEGATIVE POWER SUPPLY\n*                | | | | OUTPUT\n*                | | | | |\n.SUBCKT LM324    1 2 3 4 5\n*\n  C1   11 12 5.544E-12\n  C2    6  7 20.00E-12\n  DC    5 53 DX\n  DE   54  5 DX\n  DLP  90 91 DX\n  DLN  92 90 DX\n  DP    4  3 DX\n  EGND 99  0 POLY(2) (3,0) (4,0) 0 .5 .5\n  FB    7 99 POLY(5) VB VC VE VLP VLN 0 15.91E6 -20E6 20E6 20E6 -20E6\n  GA    6  0 11 12 125.7E-6\n  GCM   0  6 10 99 7.067E-9\n  IEE   3 10 DC 10.04E-6\n  HLIM 90  0 VLIM 1K\n  Q1   11  2 13 QX\n  Q2   12  1 14 QX\n  R2    6  9 100.0E3\n  RC1   4 11 7.957E3\n  RC2   4 12 7.957E3\n  RE1  13 10 2.773E3\n  RE2  14 10 2.773E3\n  REE  10 99 19.92E6\n  RO1   8  5 50\n  RO2   7 99 50\n  RP    3  4 30.31E3\n  VB    9  0 DC 0\n  VC 3 53 DC 2.100\n  VE   54  4 DC .6\n  VLIM  7  8 DC 0\n  VLP  91  0 DC 40\n  VLN   0 92 DC 40\n.MODEL DX D(IS=800.0E-18)\n.MODEL QX PNP(IS=800.0E-18 BF=250)\n.ENDS
