Version 4
SHEET 1 972 680
WIRE 432 -48 432 -64
WIRE 192 -32 192 -48
WIRE 384 32 384 16
WIRE 432 32 432 16
WIRE 432 32 384 32
WIRE 432 48 432 32
WIRE -80 64 -80 48
WIRE 16 64 16 48
WIRE 192 64 192 48
WIRE 400 64 192 64
WIRE 192 80 192 64
WIRE 480 80 464 80
WIRE 624 80 560 80
WIRE 800 80 624 80
WIRE 816 80 800 80
WIRE 400 96 384 96
WIRE 800 112 800 80
WIRE 432 128 432 112
WIRE 432 128 384 128
WIRE 384 144 384 128
WIRE 432 144 432 128
WIRE -80 160 -80 144
WIRE -80 160 -96 160
WIRE 16 160 16 144
WIRE -80 176 -80 160
WIRE 192 176 192 160
WIRE 800 192 800 176
WIRE 624 208 624 80
WIRE 720 208 720 192
WIRE 432 224 432 208
WIRE -80 272 -80 256
WIRE 624 304 624 288
WIRE 720 304 720 288
WIRE 720 304 624 304
WIRE 736 304 720 304
WIRE 624 320 624 304
WIRE 16 336 16 320
WIRE 624 416 624 400
WIRE 16 432 16 416
WIRE -80 512 -80 496
WIRE -80 608 -80 592
FLAG -96 160 0
FLAG -80 48 +12V
IOPIN -80 48 Out
FLAG -80 272 -12V
IOPIN -80 272 Out
FLAG 16 48 +3V3
IOPIN 16 48 Out
FLAG 16 160 0
FLAG 16 320 PilotPWM
IOPIN 16 320 Out
FLAG 16 432 0
FLAG 192 -48 +3V3
IOPIN 192 -48 In
FLAG 192 176 0
FLAG 384 96 PilotPWM
IOPIN 384 96 In
FLAG 384 16 +12V
IOPIN 384 16 In
FLAG 384 144 -12V
IOPIN 384 144 In
FLAG 432 -64 0
FLAG 432 224 0
FLAG 720 192 +3V3
IOPIN 720 192 In
FLAG 624 416 0
FLAG 736 304 PilotADC
IOPIN 736 304 In
FLAG 800 192 0
FLAG 816 80 PilotOut
IOPIN 816 80 Out
FLAG -80 496 PilotADC
IOPIN -80 496 Out
FLAG -80 608 0
SYMBOL voltage -80 48 R0
WINDOW 0 24 16 Invisible 2
WINDOW 123 0 0 Left 0
WINDOW 39 0 0 Left 0
SYMATTR InstName V1
SYMATTR Value 12
SYMBOL voltage -80 160 R0
WINDOW 0 24 16 Invisible 2
WINDOW 123 0 0 Left 0
WINDOW 39 0 0 Left 0
SYMATTR InstName V2
SYMATTR Value 12
SYMBOL voltage 16 48 R0
WINDOW 0 24 16 Invisible 2
WINDOW 123 0 0 Left 0
WINDOW 39 0 0 Left 0
SYMATTR InstName V3
SYMATTR Value 3.3
SYMBOL voltage 16 320 R0
WINDOW 0 24 16 Invisible 2
WINDOW 123 0 0 Left 0
WINDOW 39 0 0 Left 0
SYMATTR InstName V4
SYMATTR Value PULSE(0 3.3 0 1u 1u 500u 1m)
SYMBOL res 176 -48 R0
WINDOW 0 36 40 Invisible 2
SYMATTR InstName R1
SYMATTR Value 200k
SYMBOL res 176 64 R0
WINDOW 0 36 40 Invisible 2
SYMATTR InstName R2
SYMATTR Value 200k
SYMBOL cap 416 -48 R0
WINDOW 0 24 8 Invisible 2
SYMATTR InstName C1
SYMATTR Value 0.1µ
SYMATTR SpiceLine V=25
SYMBOL cap 416 144 R0
WINDOW 0 24 8 Invisible 2
SYMATTR InstName C2
SYMATTR Value 0.1µ
SYMATTR SpiceLine V=25
SYMBOL res 576 64 R90
WINDOW 0 0 56 Invisible 2
WINDOW 3 32 56 VTop 2
SYMATTR InstName R3
SYMATTR Value 1k
SYMBOL res 704 192 R0
WINDOW 0 36 40 Invisible 2
SYMATTR InstName R4
SYMATTR Value 56k
SYMBOL res 608 192 R0
WINDOW 0 36 40 Invisible 2
SYMATTR InstName R5
SYMATTR Value 200k
SYMBOL res 608 304 R0
WINDOW 0 36 40 Invisible 2
SYMATTR InstName R7
SYMATTR Value 66.5k
SYMBOL TVSdiode 784 112 R0
SYMATTR InstName D1
SYMATTR Value SMBJ24CA
SYMBOL voltage -80 496 R0
WINDOW 0 24 16 Invisible 2
WINDOW 123 0 0 Left 0
WINDOW 39 0 0 Left 0
SYMATTR InstName V5
SYMATTR Value PULSE(0 2 0 1u 1u 500u 1m)
SYMBOL AutoGenerated\\uA741 432 80 R0
SYMATTR InstName LM741
TEXT -48 656 Left 2 !.tran 0 5m 0 1m
